5
methane
C      0.00000    0.00000    0.00000
H      0.00000    0.00000    1.08900
H      1.02672    0.00000   -0.36300
H     -0.51336   -0.88916   -0.36300
H     -0.51336    0.88916   -0.36300

8
ethane
H      1.1851     -0.0039      0.9875
C      0.7516     -0.0225     -0.0209
H      1.1669      0.8330     -0.5693
H      1.1155     -0.9329     -0.5145
C     -0.7516      0.0225      0.0209
H     -1.1669     -0.8334      0.5687
H     -1.1157      0.9326      0.5151
H     -1.1850      0.0044     -0.9875

11
propane
C  2.709   1.156  -8.689  
C  4.198   1.177  -8.295  
C  4.770  -0.251  -8.369 
H  2.171   0.522  -8.017  
H  2.312   2.149  -8.637               
H  2.609   0.785  -9.687  
H  4.736   1.812  -8.967               
H  4.298   1.549  -7.296  
H  5.804  -0.236  -8.095 
H  4.232  -0.886  -7.697 
H  4.671  -0.623  -9.368